@<TRIPOS>MOLECULE
obj01 
24 24 0 0 0
SMALL
USER_CHARGES
#CGenFF output mol2 file
@<TRIPOS>ATOM
1	C1   -17.3040    61.0500   105.4440	C.3	1	DGJ801    -0.0320
2	C2   -16.6130    59.9690   106.2590	C.3	1	DGJ801     0.1420
3	O2   -15.5620    60.5320   107.0460	O.3	1	DGJ801    -0.6470
4	C3   -16.1200    58.8870   105.3030	C.3	1	DGJ801     0.1580
5	O3   -15.3230    57.9210   106.0030	O.3	1	DGJ801    -0.6430
6	C4   -17.3330    58.2310   104.6590	C.3	1	DGJ801     0.1130
7	O4   -18.0560    57.5410   105.6840	O.3	1	DGJ801    -0.6440
8	C5   -18.2460    59.2510   103.9680	C.3	1	DGJ801     0.1600
9	N5   -18.4360    60.4130   104.8130	N.3	1	DGJ801    -0.7710
10	C6   -19.6070    58.6560   103.6380	C.3	1	DGJ801     0.0670
11	O6   -20.3180    59.5110   102.7470	O.3	1	DGJ801    -0.6500
12	H01   -16.6300    61.4850   104.7070	H	1	DGJ801     0.0900
13	H02   -17.6380    61.8590   106.0940	H	1	DGJ801     0.0900
14	H03   -17.3070    59.5130   106.9650	H	1	DGJ801     0.0900
15	H04   -15.2740    59.8930   107.7010	H	1	DGJ801     0.4200
16	H05   -15.4900    59.3280   104.5300	H	1	DGJ801     0.0900
17	H06   -15.1000    57.2000   105.4100	H	1	DGJ801     0.4200
18	H07   -16.9930    57.5410   103.8870	H	1	DGJ801     0.0900
19	H08   -18.1460    58.1110   106.4520	H	1	DGJ801     0.4200
20	H09   -17.7570    59.5420   103.0390	H	1	DGJ801     0.0900
21	H10   -19.0630    60.1340   105.5540	H	1	DGJ801     0.3480
22	H11   -20.1790    58.5480   104.5590	H	1	DGJ801     0.0900
23	H12   -19.4690    57.6810   103.1690	H	1	DGJ801     0.0900
24	H13   -20.5450    59.0260   101.9510	H	1	DGJ801     0.4190
@<TRIPOS>BOND
1	1	12	1
2	1	13	1
3	1	2	1
4	2	14	1
5	2	3	1
6	3	15	1
7	2	4	1
8	4	16	1
9	4	5	1
10	5	17	1
11	4	6	1
12	6	18	1
13	6	7	1
14	7	19	1
15	6	8	1
16	8	20	1
17	1	9	1
18	8	9	1
19	9	21	1
20	8	10	1
21	10	22	1
22	10	23	1
23	10	11	1
24	11	24	1
