@<TRIPOS>MOLECULE
obj01 
24 24 0 0 0
SMALL
USER_CHARGES
#CGenFF output mol2 file
@<TRIPOS>ATOM
1	C1    18.8980    69.0040    86.3090	C.3	1	DGJ801    -0.0320
2	C2    19.5250    67.9250    85.4420	C.3	1	DGJ801     0.1420
3	O2    18.5200    67.2390    84.6940	O.3	1	DGJ801    -0.6470
4	C3    20.3310    66.9930    86.3420	C.3	1	DGJ801     0.1580
5	O3    20.8150    65.8670    85.5960	O.3	1	DGJ801    -0.6430
6	C4    21.4830    67.7870    86.9410	C.3	1	DGJ801     0.1130
7	O4    22.3660    68.1540    85.8750	O.3	1	DGJ801    -0.6440
8	C5    21.0010    69.0410    87.6790	C.3	1	DGJ801     0.1600
9	N5    19.9970    69.7340    86.8970	N.3	1	DGJ801    -0.7710
10	C6    22.1470    70.0010    87.9670	C.3	1	DGJ801     0.0670
11	O6    21.7350    70.9980    88.8980	O.3	1	DGJ801    -0.6500
12	H01    18.2510    68.5750    87.0730	H	1	DGJ801     0.0900
13	H02    18.2840    69.6690    85.7010	H	1	DGJ801     0.0900
14	H03    20.2020    68.3630    84.7070	H	1	DGJ801     0.0900
15	H04    18.9350    66.7120    84.0070	H	1	DGJ801     0.4200
16	H05    19.7000    66.6050    87.1420	H	1	DGJ801     0.0900
17	H06    21.3960    65.3410    86.1510	H	1	DGJ801     0.4200
18	H07    21.9950    67.1670    87.6770	H	1	DGJ801     0.0900
19	H08    21.8540    68.4970    85.1380	H	1	DGJ801     0.4200
20	H09    20.5740    68.7120    88.6260	H	1	DGJ801     0.0900
21	H10    20.4830    70.1890    86.1370	H	1	DGJ801     0.3480
22	H11    22.4460    70.4840    87.0380	H	1	DGJ801     0.0900
23	H12    22.9870    69.4430    88.3840	H	1	DGJ801     0.0900
24	H13    22.3110    70.9770    89.6650	H	1	DGJ801     0.4190
@<TRIPOS>BOND
1	1	2	1
2	1	9	1
3	1	12	1
4	1	13	1
5	2	3	1
6	2	4	1
7	2	14	1
8	3	15	1
9	4	5	1
10	4	6	1
11	4	16	1
12	5	17	1
13	6	7	1
14	6	8	1
15	6	18	1
16	7	19	1
17	8	9	1
18	8	10	1
19	8	20	1
20	9	21	1
21	10	11	1
22	10	22	1
23	10	23	1
24	11	24	1
